examples/casefiles/case300.m
function mpc = case300
%CASE300

%% MATPOWER Case Format : Version 2
mpc.version = '2';

%%-----  Power Flow Data  -----%%
%% system MVA base
mpc.baseMVA = 100;

%% bus data
%	bus_i	type	Pd	Qd	Gs	Bs	area	Vm	Va	baseKV	zone	Vmax	Vmin
mpc.bus = [
	1	1	90	49	0	0	1	1.0284	5.95	115	1	1.06	0.94;
	2	1	56	15	0	0	1	1.0354	7.74	115	1	1.06	0.94;
	3	1	20	0	0	0	1	0.9971	6.64	230	1	1.06	0.94;
	4	1	0	0	0	0	1	1.0308	4.71	345	1	1.06	0.94;
	5	1	323	130	0	0	1	1.0191	4.68	115	1	1.06	0.94;
	6	1	120	41	0	0	1	1.0312	6.99	115	1	1.06	0.94;
	7	1	0	0	0	0	1	0.9934	6.19	230	1	1.06	0.94;
	8	2	63	14	0	0	1	1.0153	2.4	115	1	1.06	0.94;
	9	1	96	43	0	0	1	1.0034	2.85	115	1	1.06	0.94;
	10	2	153	33	0	0	1	1.0205	1.35	230	1	1.06	0.94;
	11	1	83	21	0	0	1	1.0057	2.46	115	1	1.06	0.94;
	12	1	0	0	0	0	1	0.9974	5.21	230	1	1.06	0.94;
	13	1	58	10	0	0	1	0.9977	-0.55	115	1	1.06	0.94;
	14	1	160	60	0	0	1	0.9991	-4.81	115	1	1.06	0.94;
	15	1	126.7	23	0	0	1	1.0343	-8.59	115	1	1.06	0.94;
	16	1	0	0	0	0	1	1.0315	-2.65	345	1	1.06	0.94;
	17	1	561	220	0	0	1	1.0649	-13.1	115	1	1.06	0.94;
	18	1	0	0	0	0	1	0.982	1.08	230	1	1.06	0.94;
	19	2	505	120	0	0	1	1.001	-2.46	115	1	1.06	0.94;
	20	1	77	1	0	0	1	0.9752	1.62	230	1	1.06	0.94;
	21	1	81	23	0	0	1	0.9963	-1.97	115	1	1.06	0.94;
	22	1	21	7	0	0	1	1.0501	3.94	115	1	1.06	0.94;
	23	1	0	0	0	0	1	1.0057	6.02	230	1	1.06	0.94;
	24	1	45	12	0	0	1	1.0234	1.44	115	1	1.06	0.94;
	25	1	28	9	0	0	1	0.9986	-1.73	115	1	1.06	0.94;
	26	1	69	13	0	0	1	0.975	-4.9	115	1	1.06	0.94;
	27	1	55	6	0	0	1	1.0244	-12.02	115	1	1.06	0.94;
	28	1	0	0	0	0	1	1.0414	-7.94	345	1	1.06	0.94;
	29	1	0	0	0	0	1	0.9757	-25.72	115	1	1.06	0.94;
	30	1	0	0	0	0	1	1.0011	-22.59	230	1	1.06	0.94;
	31	1	85	32	0	0	1	1.0201	-11.23	115	1	1.06	0.94;
	32	1	155	18	0	0	1	1.0202	-12.56	115	1	1.06	0.94;
	33	1	0	0	0	0	1	1.0535	-5.81	345	1	1.06	0.94;
	34	1	46	-21	0	0	1	1.0216	-12.78	115	1	1.06	0.94;
	35	1	86	0	0	0	1	1.0292	-10.45	115	1	1.06	0.94;
	36	1	0	0	0	0	1	1.0448	-7.44	345	1	1.06	0.94;
	37	1	39	9	0	0	1	1.0006	-16.79	115	1	1.06	0.94;
	38	1	195	29	0	0	1	1.0086	-17.47	115	1	1.06	0.94;
	39	1	0	0	0	0	1	1.0215	-14.74	230	1	1.06	0.94;
	40	1	0	0	0	0	1	1.0344	-11.75	345	1	1.06	0.94;
	41	1	58	11.8	0	0	1	0.9777	-23.17	115	1	1.06	0.94;
	42	1	41	19	0	0	1	1.0019	-16.09	115	1	1.06	0.94;
	43	1	92	26	0	0	1	1.0475	-2.95	115	1	1.06	0.94;
	44	1	-5	5	0	0	1	1.0253	-8.15	115	1	1.06	0.94;
	45	1	61	28	0	0	1	0.9979	-11.86	115	1	1.06	0.94;
	46	1	69	3	0	0	1	0.9959	-17.6	115	1	1.06	0.94;
	47	1	10	1	0	0	1	1.005	-16.25	115	1	1.06	0.94;
	48	1	22	10	0	0	1	1.015	-12.21	115	1	1.06	0.94;
	49	1	98	20	0	0	1	1.0335	-8	115	1	1.06	0.94;
	50	1	14	1	0	0	1	0.9918	-5.99	115	1	1.06	0.94;
	51	1	218	106	0	0	1	0.9789	-5.29	115	1	1.06	0.94;
	52	1	0	0	0	0	1	1.0246	-9.56	230	1	1.06	0.94;
	53	1	207	110	0	0	1	0.9906	-3.47	115	1	1.06	0.94;
	54	1	0	0	0	0	1	1.016	-1.1	230	1	1.06	0.94;
	55	2	70	30	0	0	1	0.9583	-17.62	115	1	1.06	0.94;
	56	1	0	0	0	0	1	0.948	-12.97	230	1	1.06	0.94;
	57	1	0	0	0	0	1	0.963	-25.66	115	1	1.06	0.94;
	58	1	56	20	0	0	1	0.9513	-35.16	115	1	1.06	0.94;
	59	1	116	38	0	0	1	0.9793	-29.88	115	1	1.06	0.94;
	60	1	57	19	0	0	1	0.9696	-27.48	115	1	1.06	0.94;
	61	1	224	71	0	0	1	0.9775	-25.77	115	1	1.06	0.94;
	62	1	0	0	0	0	1	0.9964	-22	230	1	1.06	0.94;
	63	2	208	107	0	0	1	0.9632	-26.54	115	1	1.06	0.94;
	64	1	74	28	0	0	1	0.9837	-24.94	115	1	1.06	0.94;
	65	1	0	0	0	0	1	0.99	-24.05	115	1	1.06	0.94;
	66	1	48	14	0	0	1	0.982	-24.97	115	1	1.06	0.94;
	67	1	28	7	0	0	1	0.9872	-24.97	115	1	1.06	0.94;
	68	1	0	0	0	0	1	1.034	-18.89	345	1	1.06	0.94;
	69	2	37	13	0	0	1	1.025	-17.16	115	1	1.06	0.94;
	70	1	0	0	0	0	1	0.9872	-17.68	230	1	1.06	0.94;
	71	1	0	0	0	0	1	0.9909	-14.19	230	1	1.06	0.94;
	72	1	0	0	0	0	1	0.9921	-7.77	230	1	1.06	0.94;
	73	1	0	0	0	0	1	1.0151	-20.96	230	1	1.06	0.94;
	74	1	44.2	0	0	0	1	1.0317	-11.13	115	1	1.06	0.94;
	75	1	66	0	0	0	1	1.0272	-11.23	115	1	1.06	0.94;
	76	2	17.4	0	0	0	1	1.052	-9.4	115	1	1.06	0.94;
	77	2	15.8	0	0	0	1	1.052	-6.2	115	1	1.06	0.94;
	78	1	60.3	0	0	0	1	0.993	-9.42	115	1	1.06	0.94;
	79	1	39.9	0	0	0	1	1.0183	-13.24	115	1	1.06	0.94;
	80	2	66.7	0	0	0	1	1	-14.6	115	1	1.06	0.94;
	81	1	83.5	0	0	0	1	0.9894	-20.27	115	1	1.06	0.94;
	82	1	0	0	0	0	1	1.006	-14.45	115	1	1.06	0.94;
	83	1	77.8	0	0	0	1	1.0008	-15.23	115	1	1.06	0.94;
	84	1	32	0	0	0	1	1.0288	-12.06	115	1	1.06	0.94;
	85	1	8.6	0	0	0	1	0.9958	-17.33	115	1	1.06	0.94;
	86	1	49.6	0	0	0	1	1.0223	-12.94	115	1	1.06	0.94;
	87	1	4.6	0	0	0	1	1.0095	-16.03	115	1	1.06	0.94;
	88	2	112.1	0	0	0	1	0.99	-20.26	115	1	1.06	0.94;
	89	1	30.7	0	0	0	1	0.9749	-26.06	115	1	1.06	0.94;
	90	1	63	0	0	0	1	0.973	-24.72	115	1	1.06	0.94;
	91	1	19.6	0	0	0	1	0.9725	-28.69	115	1	1.06	0.94;
	92	1	26.2	0	0	0	1	0.97	-25.38	115	1	1.06	0.94;
	93	1	18.2	0	0	0	1	0.9747	-28.59	115	1	1.06	0.94;
	94	1	0	0	0	0	1	0.9603	-13.57	115	2	1.06	0.94;
	95	1	0	0	0	0	1	1.0249	-12.69	115	2	1.06	0.94;
	96	1	0	0	0	325	1	0.9348	-4.72	115	2	1.06	0.94;
	97	1	14.1	650	0	0	1	0.9298	-4.12	115	2	1.06	0.94;
	98	2	0	0	0	0	1	1.0435	5.17	115	2	1.06	0.94;
	99	1	677	215	0	55	1	0.9584	-8.77	115	2	1.06	0.94;
	100	1	535	55	0	0	1	0.9871	-12.64	115	2	1.06	0.94;
	101	1	229.1	11.8	0	0	1	0.9728	-14.36	115	2	1.06	0.94;
	102	1	78	1.4	0	0	1	1.0006	-17.64	115	2	1.06	0.94;
	103	2	276.4	59.3	0	0	1	1.0233	-13.49	115	2	1.06	0.94;
	104	2	514.8	82.7	0	0	1	1.0103	-18.43	115	2	1.06	0.94;
	105	1	57.9	5.1	0	0	1	0.9978	-12.86	115	2	1.06	0.94;
	106	1	380.8	37	0	0	1	1.0001	-10.52	230	2	1.06	0.94;
	107	1	0	0	0	0	1	1.0024	-4.78	230	2	1.06	0.94;
	108	1	0	0	0	0	1	1.0028	-4.4	230	2	1.06	0.94;
	109	1	0	0	0	0	1	1.0191	5.56	230	2	1.06	0.94;
	110	1	0	0	0	0	1	0.9861	6.06	230	2	1.06	0.94;
	111	1	0	0	0	0	1	1.0045	3.04	230	2	1.06	0.94;
	112	1	0	0	0	0	1	1.002	-5.46	230	2	1.06	0.94;
	113	1	0	0	0	0	1	1.022	-8.04	230	2	1.06	0.94;
	114	1	169.2	41.6	0	0	1	1.0193	-6.76	230	2	1.06	0.94;
	115	1	55.2	18.2	0	0	1	1.0476	1.54	230	2	1.06	0.94;
	116	1	273.6	99.8	0	0	1	1.0471	-1.45	230	2	1.06	0.94;
	117	2	1019.2	135.2	0	0	1	1.055	-6.35	230	2	1.06	0.94;
	118	1	595	83.3	0	0	1	1.0117	-3.57	115	2	1.06	0.94;
	119	1	387.7	114.7	0	0	1	1.043	-3.44	230	2	1.06	0.94;
	120	2	145	58	0	0	1	1.051	0.05	230	2	1.06	0.94;
	121	1	56.5	24.5	0	0	1	1.0155	-2.77	230	2	1.06	0.94;
	122	2	89.5	35.5	0	0	1	1.0435	4.03	230	2	1.06	0.94;
	123	1	0	0	0	0	1	1.016	-0.7	230	2	1.06	0.94;
	124	1	24	14	0	0	1	1.0081	-0.16	230	2	1.06	0.94;
	125	2	0	0	0	0	1	1.0528	4.32	230	2	1.06	0.94;
	126	2	0	0	0	0	1	1.0528	8.36	230	2	1.06	0.94;
	127	1	63	25	0	0	1	1.0577	0.28	230	2	1.06	0.94;
	128	2	0	0	0	0	1	1.0735	5.23	230	2	1.06	0.94;
	129	1	0	0	0	0	1	0.9869	6.34	230	2	1.06	0.94;
	130	1	0	0	0	0	1	1.0048	4.13	230	2	1.06	0.94;
	131	2	17	9	0	0	1	1.0535	9.24	230	2	1.06	0.94;
	132	2	0	0	0	0	1	1.0435	10.46	230	2	1.06	0.94;
	133	1	70	5	0	34.5	1	0.9663	-1.8	115	2	1.06	0.94;
	134	1	200	50	0	0	1	1.0177	6.75	230	2	1.06	0.94;
	135	2	75	50	0	0	1	0.963	5.15	115	2	1.06	0.94;
	136	1	123.5	-24.3	0	0	1	0.9845	-11.93	230	2	1.06	0.94;
	137	1	0	0	0	0	1	0.9987	-11.4	230	2	1.06	0.94;
	138	1	33	16.5	0	0	1	0.9867	-9.82	230	2	1.06	0.94;
	139	1	0	0	0	0	1	0.9998	-12.55	230	2	1.06	0.94;
	140	1	35	15	0	0	1	1.036	8.85	230	2	1.06	0.94;
	141	1	85	24	0	0	1	0.9918	18.5	230	2	1.06	0.94;
	142	1	0	0.4	0	0	1	1.041	2.91	230	2	1.06	0.94;
	143	1	0	0	0	-212	1	0.9839	9.66	230	2	1.06	0.94;
	144	1	0	0	0	0	1	1.0002	26.31	230	2	1.06	0.94;
	145	1	0	0	0	-103	1	0.9973	30.22	230	2	1.06	0.94;
	146	1	299.9	95.7	0	0	1	0.9715	-6.91	230	2	1.06	0.94;
	147	1	0	0	0	0	1	1.0024	-4.8	230	2	1.06	0.94;
	148	1	0	0	0	0	1	0.9879	-6.68	230	2	1.06	0.94;
	149	2	481.8	205	0	0	1	0.929	0.09	115	2	1.06	0.94;
	150	2	763.6	291.1	0	0	1	0.9829	-9.94	115	2	1.06	0.94;
	151	1	26.5	0	0	0	1	1.0244	-6.22	115	2	1.06	0.94;
	152	1	163.5	43	0	53	1	0.9837	-12.75	115	2	1.06	0.94;
	153	1	0	0	0	0	1	1.0622	-2.69	115	2	1.06	0.94;
	154	1	176	83	0	0	1	0.973	-7.21	115	2	1.06	0.94;
	155	2	5	4	0	0	1	1.0522	4.67	115	2	1.06	0.94;
	156	2	28	12	0	0	1	1.0077	0.62	115	2	1.06	0.94;
	157	1	427.4	173.6	0	0	1	0.9397	-6.56	115	2	1.06	0.94;
	158	1	74	29	0	45	1	0.9699	-9.37	115	2	1.06	0.94;
	159	1	69.5	49.3	0	0	1	0.9793	-3.09	115	2	1.06	0.94;
	160	1	73.4	0	0	0	1	1.0518	-1.33	230	2	1.06	0.94;
	161	1	240.7	89	0	0	1	1.0447	-4.19	230	2	1.06	0.94;
	162	1	40	4	0	0	1	0.9717	7.12	115	2	1.06	0.94;
	163	1	136.8	16.6	0	0	1	1.0386	-6.85	230	2	1.06	0.94;
	164	2	0	0	0	0	1	1.0522	-4.33	230	2	1.06	0.94;
	165	2	59.8	24.3	0	0	1	1.065	2.17	230	2	1.06	0.94;
	166	2	59.8	24.3	0	0	1	1.065	1.4	230	2	1.06	0.94;
	167	1	182.6	43.6	0	0	1	1.0533	-0.72	230	2	1.06	0.94;
	168	1	7	2	0	0	1	0.9975	-25.84	66	3	1.06	0.94;
	169	2	0	0	0	-150	1	1.0551	-20.62	345	3	1.06	0.94;
	170	2	489	53	0	0	1	1.0435	12.25	230	3	1.06	0.94;
	171	1	800	72	0	0	1	0.9374	-11.18	230	3	1.06	0.94;
	172	1	0	0	0	0	1	0.9897	-26.09	66	3	1.06	0.94;
	173	1	0	0	0	0	1	1.0489	-19.21	345	3	1.06	0.94;
	174	1	0	0	0	0	1	1.0357	-20.79	345	3	1.06	0.94;
	175	1	10	3	0	0	1	0.9695	-25.32	115	3	1.06	0.94;
	176	1	43	14	0	0	1	0.9907	-23.72	115	3	1.06	0.94;
	177	2	64	21	0	0	1	1.015	-20.58	115	3	1.06	0.94;
	178	1	35	12	0	0	1	0.9528	-26.05	115	3	1.06	0.94;
	179	1	27	12	0	0	1	0.955	-25.93	115	3	1.06	0.94;
	180	1	41	14	0	0	1	0.9692	-27.49	66	1	1.06	0.94;
	181	1	38	13	0	0	1	0.9908	-25.33	66	3	1.06	0.94;
	182	1	42	14	0	0	1	1.0033	-22.35	115	3	1.06	0.94;
	183	1	72	24	0	0	1	0.9718	-25.7	66	3	1.06	0.94;
	184	1	0	-5	0	0	1	0.9838	-26.07	66	3	1.06	0.94;
	185	1	12	2	0	0	1	0.9992	-27.41	66	3	1.06	0.94;
	186	1	-21	-14.2	0	0	1	1.0137	-27.44	66	1	1.06	0.94;
	187	1	7	2	0	0	1	0.9929	-26.28	66	3	1.06	0.94;
	188	1	38	13	0	0	1	0.9999	-25.66	66	3	1.06	0.94;
	189	1	0	0	0	0	1	0.9788	-24.22	115	3	1.06	0.94;
	190	1	96	7	0	0	1	1.0017	-23.31	115	3	1.06	0.94;
	191	1	0	0	0	0	1	1.0132	-22.51	138	3	1.06	0.94;
	192	2	0	0	0	0	1	1.01	-11.67	16.5	3	1.06	0.94;
	193	1	22	16	0	0	1	0.9919	-17.53	138	3	1.06	0.94;
	194	1	47	26	0	0	1	0.9866	-20.23	138	3	1.06	0.94;
	195	1	176	105	0	0	1	0.9751	-22.53	138	3	1.06	0.94;
	196	1	100	75	0	0	1	1.0215	-22.2	138	3	1.06	0.94;
	197	1	131	96	0	0	1	1.0075	-22.63	138	3	1.06	0.94;
	198	1	0	0	0	0	1	1.0554	-21.15	345	3	1.06	0.94;
	199	2	285	100	0	0	1	1.008	-21.73	138	3	1.06	0.94;
	200	2	171	70	0	0	1	1	-22.49	138	3	1.06	0.94;
	201	2	328	188	0	0	1	1.05	-23.17	20	3	1.06	0.94;
	202	1	428	232	0	0	1	0.9965	-22.7	138	3	1.06	0.94;
	203	1	173	99	0	0	1	1.0002	-21.55	230	3	1.06	0.94;
	204	1	410	40	0	0	1	0.9453	-11.34	230	3	1.06	0.94;
	205	1	0	0	0	0	1	1.018	-21.61	230	3	1.06	0.94;
	206	2	538	369	0	0	1	1	-27.22	27	3	1.06	0.94;
	207	1	223	148	0	0	1	1.0423	-20.94	138	3	1.06	0.94;
	208	1	96	46	0	0	1	1.0496	-19.94	138	3	1.06	0.94;
	209	2	0	0	0	0	1	1.04	-13.82	20	3	1.06	0.94;
	210	1	159	107	0	-300	1	1.0535	-21.22	345	3	1.06	0.94;
	211	1	448	143	0	0	1	1.0414	-23.19	138	3	1.06	0.94;
	212	2	404	212	0	0	1	1	-25.9	66	3	1.06	0.94;
	213	1	572	244	0	0	1	1.0387	-20.89	138	3	1.06	0.94;
	214	1	269	157	0	0	1	1.0095	-21.03	138	3	1.06	0.94;
	215	2	0	0	0	0	1	1.0165	-15.4	20	3	1.06	0.94;
	216	1	0	0	0	0	1	1.0558	-21.1	345	3	1.06	0.94;
	217	2	255	149	0	-150	1	1.01	-20.94	138	3	1.06	0.94;
	218	2	0	0	0	0	1	1	-15.86	138	3	1.06	0.94;
	219	1	0	0	0	-140	1	1.0237	-20.14	230	3	1.06	0.94;
	220	2	0	0	0	0	1	1.05	-16.5	20	3	1.06	0.94;
	221	2	0	0	0	0	1	0.993	-17.53	138	3	1.06	0.94;
	222	2	8	3	0	0	1	1.01	-19.27	66	3	1.06	0.94;
	223	1	0	0	0	0	1	0.9921	-20.21	66	3	1.06	0.94;
	224	1	61	30	0	0	1	0.9711	-20.9	66	3	1.06	0.94;
	225	1	77	33	0	0	1	0.9651	-21.74	66	3	1.06	0.94;
	226	1	61	30	0	0	1	0.9688	-21.67	66	3	1.06	0.94;
	227	1	29	14	0	45.6	1	0.976	-25.23	66	3	1.06	0.94;
	228	1	29	14	0	0	1	0.9752	-25.65	66	3	1.06	0.94;
	229	1	-23	-17	0	0	1	1.0196	-23.8	66	3	1.06	0.94;
	230	1	-33.1	-29.4	0	0	1	1.0251	-20.06	230	3	1.06	0.94;
	231	1	115.8	-24	0	0	1	1.0152	1.48	230	1	1.06	0.94;
	232	1	2.4	-12.6	0	0	1	1.0146	-2.23	115	1	1.06	0.94;
	233	1	2.4	-3.9	0	0	1	1.0005	-17.61	115	1	1.06	0.94;
	234	1	-14.9	26.5	0	0	1	0.981	-13.69	230	1	1.06	0.94;
	235	1	24.7	-1.2	0	0	1	0.975	-23.42	115	1	1.06	0.94;
	236	1	145.3	-34.9	0	0	1	0.9429	-34.31	115	1	1.06	0.94;
	237	1	28.1	-20.5	0	0	1	0.9723	-37.58	115	1	1.06	0.94;
	238	1	14	2.5	0	0	1	0.9604	-29.1	115	1	1.06	0.94;
	239	1	-11.1	-1.4	0	0	1	1.0009	-23.36	115	1	1.06	0.94;
	240	1	50.5	17.4	0	0	1	0.9777	-28	230	1	1.06	0.94;
	241	1	29.6	0.6	0	0	1	0.9583	-28.79	115	1	1.06	0.94;
	242	1	-113.7	76.7	0	0	1	1.0309	-17	345	3	1.06	0.94;
	243	1	100.31	29.17	0	0	1	1.0128	3.9	86	2	1.06	0.94;
	244	1	-100	34.17	0	0	1	1.0244	-7.52	86	2	1.06	0.94;
	245	1	0	0	0	0	1	1.0122	-15.18	115	2	1.06	0.94;
	246	1	0	0	0	0	1	0.9653	-14.94	115	3	1.06	0.94;
	247	2	0	0	0	0	1	1.0507	10.79	13.8	1	1.06	0.94;
	248	2	0	0	0	0	1	1.0507	12.48	13.8	1	1.06	0.94;
	249	2	0	0	0	0	1	1.0323	13.76	13.8	1	1.06	0.94;
	250	2	0	0	0	0	1	1.0145	4.99	13.8	1	1.06	0.94;
	251	2	0	0	0	0	1	1.0507	11.57	13.8	1	1.06	0.94;
	252	2	0	0	0	0	1	1.0507	-10.47	13.8	1	1.06	0.94;
	253	2	0	0	0	0	1	1.0507	6.15	13.8	1	1.06	0.94;
	254	2	0	0	0	0	1	1.029	12.6	13.8	1	1.06	0.94;
	255	2	0	0	0	0	1	1.05	2.11	20	1	1.06	0.94;
	256	2	0	0	0	0	1	1.0145	-13.92	13.8	1	1.06	0.94;
	257	3	0	0	0	0	1	1.0507	0	13.8	1	1.06	0.94;
	258	2	0	0	0	0	1	0.9967	-7.5	13.8	1	1.06	0.94;
	259	2	0	0	0	0	1	1.0212	-3.44	13.8	1	1.06	0.94;
	260	2	0	0	0	0	1	1.0145	1.97	13.8	1	1.06	0.94;
	261	2	0	0	0	0	1	1.0017	5.8	13.8	1	1.06	0.94;
	262	2	0	0	0	0	1	0.9893	-25.35	13.8	1	1.06	0.94;
	263	2	0	0	0	0	1	1.0507	19.02	13.8	2	1.06	0.94;
	264	2	0	0	0	0	1	1.0507	2.75	13.8	2	1.06	0.94;
	265	2	0	0	0	0	1	1.0145	35.05	13.8	2	1.06	0.94;
	266	1	0	0	0	0	1	1.0117	-11.25	115	9	1.06	0.94;
	267	2	4.2	0	0	0	1	0.9945	-18.86	6.6	9	1.06	0.94;
	268	1	2.71	0.94	0.14	2.4	1	0.9833	-19.68	6.6	9	1.06	0.94;
	269	1	0.86	0.28	0	0	1	0.9768	-19.82	6.6	9	1.06	0.94;
	270	1	0	0	0	0	1	1.0117	-11.32	115	9	1.06	0.94;
	271	1	0	0	0	0	1	1.0029	-17.42	6.6	9	1.06	0.94;
	272	1	0	0	0	0	1	0.9913	-18.69	6.6	9	1.06	0.94;
	273	1	0	0	0	0	1	1.0023	-17.27	6.6	9	1.06	0.94;
	274	1	4.75	1.56	0	0	1	0.9887	-19.09	6.6	9	1.06	0.94;
	275	1	1.53	0.53	0.08	0	1	0.9648	-21.67	0.6	9	1.06	0.94;
	276	1	0	0	0	0	1	0.9747	-19.41	6.6	9	1.06	0.94;
	277	1	1.35	0.47	0.07	0	1	0.9706	-21.43	0.6	9	1.06	0.94;
	278	1	0.45	0.16	0.02	0	1	0.9649	-20.48	0.6	9	1.06	0.94;
	279	1	0.45	0.16	0.02	0	1	0.9657	-20.39	0.6	9	1.06	0.94;
	280	1	1.84	0.64	0.1	0	1	0.9318	-25.03	0.6	9	1.06	0.94;
	281	1	1.39	0.48	0.07	0	1	0.9441	-23.84	0.6	9	1.06	0.94;
	282	1	1.89	0.65	0.1	0	1	0.9286	-25.33	0.6	9	1.06	0.94;
	283	1	1.55	0.54	0.08	1.72	1	0.9973	-21.1	0.6	9	1.06	0.94;
	284	1	1.66	0.58	0.09	0	1	0.9506	-23.19	0.6	9	1.06	0.94;
	285	1	3.03	1	0	0	1	0.9598	-22.67	2.3	9	1.06	0.94;
	286	1	1.86	0.64	0.1	0	1	0.957	-22.58	0.6	9	1.06	0.94;
	287	1	2.58	0.89	0.14	0	1	0.9391	-24.41	0.6	9	1.06	0.94;
	288	1	1.01	0.35	0.05	0	1	0.9636	-21.33	0.6	9	1.06	0.94;
	289	1	0.81	0.28	0.04	0	1	0.9501	-22.5	0.6	9	1.06	0.94;
	290	1	1.6	0.52	0	0	1	0.9646	-21.42	2.3	9	1.06	0.94;
	291	1	0	0	0	0	1	0.979	-19.78	6.6	9	1.06	0.94;
	292	2	35.81	0	0	0	1	1	-19.4	13.8	9	1.06	0.94;
	293	1	30	23	0	0	1	0.9786	-17.25	13.8	9	1.06	0.94;
	294	2	26.48	0	0	0	1	1	-17.68	13.8	9	1.06	0.94;
	295	2	0	0	0	0	1	1	-6.83	13.8	9	1.06	0.94;
	296	2	0	0	0	0	1	1	-7.54	13.8	9	1.06	0.94;
	297	1	1.02	0.35	0.05	0	1	0.9752	-20.48	0.6	9	1.06	0.94;
	298	1	1.02	0.35	0.05	0	1	0.9803	-19.92	0.6	9	1.06	0.94;
	299	1	3.8	1.25	0	0	1	0.9799	-19.3	6.6	9	1.06	0.94;
	300	1	1.19	0.41	0.1	0	1	1.0402	-18.24	2.3	9	1.06	0.94;
];

%% generator data
%	bus	Pg	Qg	Qmax	Qmin	Vg	mBase	status	Pmax	Pmin	Pc1	Pc2	Qc1min	Qc1max	Qc2min	Qc2max	ramp_agc	ramp_10	ramp_30	ramp_q	apf
mpc.gen = [
	8	0	0	10	-10	1.0153	100	1	100	0	0	0	0	0	0	0	0	0	0	0	0;
	10	0	0	20	-20	1.0205	100	1	100	0	0	0	0	0	0	0	0	0	0	0	0;
	19	0	0	20	-20	1.001	100	1	100	0	0	0	0	0	0	0	0	0	0	0	0;
	55	0	0	25	-25	0.9583	100	1	100	0	0	0	0	0	0	0	0	0	0	0	0;
	63	0	0	35	12	0.9632	100	1	100	0	0	0	0	0	0	0	0	0	0	0	0;
	69	375	0	240	-240	1.025	100	1	475	0	0	0	0	0	0	0	0	0	0	0	0;
	76	155	0	96	-11	1.052	100	1	255	0	0	0	0	0	0	0	0	0	0	0	0;
	77	290	0	153	-153	1.052	100	1	390	0	0	0	0	0	0	0	0	0	0	0	0;
	80	68	0	56	-30	1	100	1	168	0	0	0	0	0	0	0	0	0	0	0	0;
	88	117	0	77	-24	0.99	100	1	217	0	0	0	0	0	0	0	0	0	0	0	0;
	98	1930	0	1500	-500	1.0435	100	1	2030	0	0	0	0	0	0	0	0	0	0	0	0;
	103	240	0	120	-60	1.0233	100	1	340	0	0	0	0	0	0	0	0	0	0	0	0;
	104	0	0	200	-25	1.0103	100	1	100	0	0	0	0	0	0	0	0	0	0	0	0;
	117	0	0	350	-125	1.055	100	1	100	0	0	0	0	0	0	0	0	0	0	0	0;
	120	281	0	75	-50	1.051	100	1	381	0	0	0	0	0	0	0	0	0	0	0	0;
	122	696	0	300	-100	1.0435	100	1	796	0	0	0	0	0	0	0	0	0	0	0	0;
	125	84	0	35	-15	1.0528	100	1	184	0	0	0	0	0	0	0	0	0	0	0	0;
	126	217	0	100	-50	1.0528	100	1	317	0	0	0	0	0	0	0	0	0	0	0	0;
	128	103	0	50	-25	1.0735	100	1	203	0	0	0	0	0	0	0	0	0	0	0	0;
	131	372	0	175	-50	1.0535	100	1	472	0	0	0	0	0	0	0	0	0	0	0	0;
	132	216	0	90	-50	1.0435	100	1	316	0	0	0	0	0	0	0	0	0	0	0	0;
	135	0	0	15	-10	0.963	100	1	100	0	0	0	0	0	0	0	0	0	0	0	0;
	149	205	0	90	-40	0.929	100	1	305	0	0	0	0	0	0	0	0	0	0	0	0;
	150	0	0	150	-50	0.9829	100	1	100	0	0	0	0	0	0	0	0	0	0	0	0;
	155	228	0	90	-45	1.0522	100	1	328	0	0	0	0	0	0	0	0	0	0	0	0;
	156	84	0	35	-15	1.0077	100	1	184	0	0	0	0	0	0	0	0	0	0	0	0;
	164	200	0	80	-50	1.0522	100	1	300	0	0	0	0	0	0	0	0	0	0	0	0;
	165	1200	0	400	-100	1.065	100	1	1300	0	0	0	0	0	0	0	0	0	0	0	0;
	166	1200	0	400	-100	1.065	100	1	1300	0	0	0	0	0	0	0	0	0	0	0	0;
	169	475	0	300	-300	1.0551	100	1	575	0	0	0	0	0	0	0	0	0	0	0	0;
	170	1973	0	1000	-1000	1.0435	100	1	2073	0	0	0	0	0	0	0	0	0	0	0	0;
	177	424	0	260	-260	1.015	100	1	524	0	0	0	0	0	0	0	0	0	0	0	0;
	192	272	0	150	-150	1.01	100	1	372	0	0	0	0	0	0	0	0	0	0	0	0;
	199	100	0	60	-60	1.008	100	1	200	0	0	0	0	0	0	0	0	0	0	0	0;
	200	450	0	320	-320	1	100	1	550	0	0	0	0	0	0	0	0	0	0	0	0;
	201	250	0	300	-300	1.05	100	1	350	0	0	0	0	0	0	0	0	0	0	0	0;
	206	303	0	300	-300	1	100	1	403	0	0	0	0	0	0	0	0	0	0	0	0;
	209	345	0	250	-250	1.04	100	1	445	0	0	0	0	0	0	0	0	0	0	0	0;
	212	300	0	500	-500	1	100	1	400	0	0	0	0	0	0	0	0	0	0	0	0;
	215	600	0	300	-300	1.0165	100	1	700	0	0	0	0	0	0	0	0	0	0	0	0;
	217	250	0	200	-200	1.01	100	1	350	0	0	0	0	0	0	0	0	0	0	0	0;
	218	550	0	400	-400	1	100	1	650	0	0	0	0	0	0	0	0	0	0	0	0;
	220	575.43	0	600	-600	1.05	100	1	675.43	0	0	0	0	0	0	0	0	0	0	0	0;
	221	170	0	100	40	0.993	100	1	270	0	0	0	0	0	0	0	0	0	0	0	0;
	222	84	0	80	40	1.01	100	1	184	0	0	0	0	0	0	0	0	0	0	0	0;
	247	467	0	210	-210	1.0507	100	1	567	0	0	0	0	0	0	0	0	0	0	0	0;
	248	623	0	280	-280	1.0507	100	1	723	0	0	0	0	0	0	0	0	0	0	0	0;
	249	1210	0	420	-420	1.0323	100	1	1310	0	0	0	0	0	0	0	0	0	0	0	0;
	250	234	0	100	-100	1.0145	100	1	334	0	0	0	0	0	0	0	0	0	0	0	0;
	251	372	0	224	-224	1.0507	100	1	472	0	0	0	0	0	0	0	0	0	0	0	0;
	252	330	0	350	0	1.0507	100	1	430	0	0	0	0	0	0	0	0	0	0	0	0;
	253	185	0	120	0	1.0507	100	1	285	0	0	0	0	0	0	0	0	0	0	0	0;
	254	410	0	224	-224	1.029	100	1	510	0	0	0	0	0	0	0	0	0	0	0	0;
	255	500	0	200	-200	1.05	100	1	600	0	0	0	0	0	0	0	0	0	0	0	0;
	256	37	0	42	0	1.0145	100	1	137	0	0	0	0	0	0	0	0	0	0	0	0;
	257	0	0	10	0	1.0507	100	1	2399.005	0	0	0	0	0	0	0	0	0	0	0	0;
	258	45	0	25	0	0.9967	100	1	145	0	0	0	0	0	0	0	0	0	0	0	0;
	259	165	0	90	-90	1.0212	100	1	265	0	0	0	0	0	0	0	0	0	0	0	0;
	260	400	0	150	-150	1.0145	100	1	500	0	0	0	0	0	0	0	0	0	0	0	0;
	261	400	0	150	0	1.0017	100	1	500	0	0	0	0	0	0	0	0	0	0	0	0;
	262	116	0	87	0	0.9893	100	1	216	0	0	0	0	0	0	0	0	0	0	0	0;
	263	1292	0	600	-100	1.0507	100	1	1392	0	0	0	0	0	0	0	0	0	0	0	0;
	264	700	0	325	-125	1.0507	100	1	800	0	0	0	0	0	0	0	0	0	0	0	0;
	265	553	0	300	-200	1.0145	100	1	653	0	0	0	0	0	0	0	0	0	0	0	0;
	267	0	0	2	-2	0.9945	100	1	100	0	0	0	0	0	0	0	0	0	0	0	0;
	292	0	0	17.35	-17.35	1	100	1	100	0	0	0	0	0	0	0	0	0	0	0	0;
	294	0	0	12.83	-12.8	1	100	1	100	0	0	0	0	0	0	0	0	0	0	0	0;
	295	50	0	38	-38	1	100	1	150	0	0	0	0	0	0	0	0	0	0	0	0;
	296	8	0	6	-6	1	100	1	108	0	0	0	0	0	0	0	0	0	0	0	0;
];

%% branch data
%	fbus	tbus	r	x	b	rateA	rateB	rateC	ratio	angle	status	angmin	angmax
mpc.branch = [
	31	266	6e-05	0.00046	0	800	0	75	1.0082	0	1	-360	360;
	266	270	0.0008	0.00348	0	800	0	0	0	0	1	-360	360;
	266	271	0.02439	0.43682	0	800	0	0	0.9668	0	1	-360	360;
	266	273	0.03624	0.64898	0	800	0	0	0.9796	0	1	-360	360;
	270	292	0.01578	0.37486	0	800	0	0	1.0435	0	1	-360	360;
	270	293	0.01578	0.37486	0	800	0	0	0.9391	0	1	-360	360;
	270	294	0.01602	0.38046	0	800	0	0	1.0435	0	1	-360	360;
	270	295	0	0.152	0	800	0	0	1.0435	0	1	-360	360;
	270	296	0	0.8	0	800	0	0	1.0435	0	1	-360	360;
	271	272	0.05558	0.24666	0	800	0	0	0	0	1	-360	360;
	271	268	0.11118	0.49332	0	800	0	0	0	0	1	-360	360;
	271	268	0.11118	0.49332	0	800	0	0	0	0	1	-360	360;
	273	267	0.07622	0.43286	0	800	0	0	0	0	1	-360	360;
	273	267	0.07622	0.43286	0	800	0	0	0	0	1	-360	360;
	267	274	0.0537	0.07026	0	800	0	0	0	0	1	-360	360;
	274	276	1.1068	0.95278	0	800	0	0	0	0	1	-360	360;
	274	275	0.44364	2.8152	0	800	0	0	1	0	1	-360	360;
	267	277	0.50748	3.2202	0	800	0	0	1	0	1	-360	360;
	276	278	0.66688	3.944	0	800	0	0	1	0	1	-360	360;
	276	279	0.6113	3.6152	0	800	0	0	1	0	1	-360	360;
	272	297	0.4412	2.9668	0	800	0	0	1	0	1	-360	360;
	272	298	0.30792	2.057	0	800	0	0	1	0	1	-360	360;
	272	268	0.0558	0.24666	0	800	0	0	0	0	1	-360	360;
	268	280	0.73633	4.6724	0	800	0	0	1	0	1	-360	360;
	268	281	0.76978	4.8846	0	800	0	0	1	0	1	-360	360;
	268	282	0.75732	4.8056	0	800	0	0	1	0	1	-360	360;
	268	291	0.07378	0.06352	0	800	0	0	0	0	1	-360	360;
	291	269	0.03832	0.02894	0	800	0	0	0	0	1	-360	360;
	269	288	0.36614	2.456	0	800	0	0	1	0	1	-360	360;
	269	289	1.0593	5.4536	0	800	0	0	1	0	1	-360	360;
	269	290	0.1567	1.6994	0	800	0	0	1	0	1	-360	360;
	268	283	0.13006	1.3912	0	800	0	0	1	0	1	-360	360;
	268	284	0.54484	3.4572	0	800	0	0	1	0	1	-360	360;
	268	285	0.15426	1.6729	0	800	0	0	1	0	1	-360	360;
	268	286	0.3849	2.5712	0	800	0	0	1	0	1	-360	360;
	268	287	0.4412	2.9668	0	800	0	0	1	0	1	-360	360;
	273	299	0.23552	0.99036	0	800	0	0	0	0	1	-360	360;
	294	300	0	0.75	0	800	0	0	0.9583	0	1	-360	360;
	1	5	0.001	0.006	0	800	0	0	0	0	1	-360	360;
	2	6	0.001	0.009	0	800	0	0	0	0	1	-360	360;
	2	8	0.006	0.027	0.054	800	0	0	0	0	1	-360	360;
	3	7	0	0.003	0	800	0	0	0	0	1	-360	360;
	3	18	0.008	0.069	0.139	800	0	0	0	0	1	-360	360;
	3	129	0.001	0.007	0	800	0	0	0	0	1	-360	360;
	4	16	0.002	0.019	1.127	800	0	0	0	0	1	-360	360;
	5	9	0.006	0.029	0.018	800	0	0	0	0	1	-360	360;
	7	12	0.001	0.009	0.07	800	0	0	0	0	1	-360	360;
	7	110	0.001	0.007	0.014	800	0	0	0	0	1	-360	360;
	8	11	0.013	0.0595	0.033	800	0	0	0	0	1	-360	360;
	8	14	0.013	0.042	0.081	800	0	0	0	0	1	-360	360;
	9	11	0.006	0.027	0.013	800	0	0	0	0	1	-360	360;
	11	13	0.008	0.034	0.018	800	0	0	0	0	1	-360	360;
	12	20	0.002	0.015	0.118	800	0	0	0	0	1	-360	360;
	13	19	0.006	0.034	0.016	800	0	0	0	0	1	-360	360;
	14	15	0.014	0.042	0.097	800	0	0	0	0	1	-360	360;
	15	31	0.065	0.248	0.121	800	0	0	0	0	1	-360	360;
	15	74	0.099	0.248	0.035	800	0	0	0	0	1	-360	360;
	15	75	0.096	0.363	0.048	800	0	0	0	0	1	-360	360;
	16	36	0.002	0.022	1.28	800	0	0	0	0	1	-360	360;
	18	20	0.002	0.018	0.036	800	0	0	0	0	1	-360	360;
	18	72	0.013	0.08	0.151	800	0	0	0	0	1	-360	360;
	19	21	0.016	0.033	0.015	800	0	0	0	0	1	-360	360;
	19	26	0.069	0.186	0.098	800	0	0	0	0	1	-360	360;
	20	23	0.004	0.034	0.28	800	0	0	0	0	1	-360	360;
	21	22	0.052	0.111	0.05	800	0	0	0	0	1	-360	360;
	22	24	0.019	0.039	0.018	800	0	0	0	0	1	-360	360;
	23	231	0.007	0.068	0.134	800	0	0	0	0	1	-360	360;
	24	25	0.036	0.071	0.034	800	0	0	0	0	1	-360	360;
	25	26	0.045	0.12	0.065	800	0	0	0	0	1	-360	360;
	25	232	0.043	0.13	0.014	800	0	0	0	0	1	-360	360;
	27	28	0	0.063	0	800	0	0	0	0	1	-360	360;
	27	32	0.0025	0.012	0.013	800	0	0	0	0	1	-360	360;
	27	34	0.006	0.029	0.02	800	0	0	0	0	1	-360	360;
	27	35	0.007	0.043	0.026	800	0	0	0	0	1	-360	360;
	28	36	0.001	0.008	0.042	800	0	0	0	0	1	-360	360;
	29	60	0.012	0.06	0.008	800	0	0	0	0	1	-360	360;
	29	63	0.006	0.014	0.002	800	0	0	0	0	1	-360	360;
	29	64	0.01	0.029	0.003	800	0	0	0	0	1	-360	360;
	30	73	0.004	0.027	0.043	800	0	0	0	0	1	-360	360;
	31	32	0.008	0.047	0.008	800	0	0	0	0	1	-360	360;
	31	34	0.022	0.064	0.007	800	0	0	0	0	1	-360	360;
	31	35	0.01	0.036	0.02	800	0	0	0	0	1	-360	360;
	31	43	0.017	0.081	0.048	800	0	0	0	0	1	-360	360;
	31	74	0.102	0.254	0.033	800	0	0	0	0	1	-360	360;
	31	75	0.047	0.127	0.016	800	0	0	0	0	1	-360	360;
	32	35	0.008	0.037	0.02	800	0	0	0	0	1	-360	360;
	32	37	0.032	0.087	0.04	800	0	0	0	0	1	-360	360;
	33	36	0.0006	0.0064	0.404	800	0	0	0	0	1	-360	360;
	34	42	0.026	0.154	0.022	800	0	0	0	0	1	-360	360;
	35	36	0	0.029	0	800	0	0	0	0	1	-360	360;
	35	43	0.065	0.191	0.02	800	0	0	0	0	1	-360	360;
	35	44	0.031	0.089	0.036	800	0	0	0	0	1	-360	360;
	36	40	0.002	0.014	0.806	800	0	0	0	0	1	-360	360;
	37	38	0.026	0.072	0.035	800	0	0	0	0	1	-360	360;
	37	42	0.095	0.262	0.032	800	0	0	0	0	1	-360	360;
	37	46	0.013	0.039	0.016	800	0	0	0	0	1	-360	360;
	38	41	0.027	0.084	0.039	800	0	0	0	0	1	-360	360;
	38	47	0.028	0.084	0.037	800	0	0	0	0	1	-360	360;
	39	52	0.007	0.041	0.312	800	0	0	0	0	1	-360	360;
	39	62	0.009	0.054	0.411	800	0	0	0	0	1	-360	360;
	40	68	0.005	0.042	0.69	800	0	0	0	0	1	-360	360;
	41	61	0.052	0.145	0.073	800	0	0	0	0	1	-360	360;
	41	92	0.043	0.118	0.013	800	0	0	0	0	1	-360	360;
	42	87	0.025	0.062	0.007	800	0	0	0	0	1	-360	360;
	43	44	0.031	0.094	0.043	800	0	0	0	0	1	-360	360;
	44	45	0.037	0.109	0.049	800	0	0	0	0	1	-360	360;
	45	48	0.027	0.08	0.036	800	0	0	0	0	1	-360	360;
	46	47	0.025	0.073	0.035	800	0	0	0	0	1	-360	360;
	47	48	0.035	0.103	0.047	800	0	0	0	0	1	-360	360;
	48	49	0.065	0.169	0.082	800	0	0	0	0	1	-360	360;
	49	50	0.046	0.08	0.036	800	0	0	0	0	1	-360	360;
	49	55	0.159	0.537	0.071	800	0	0	0	0	1	-360	360;
	50	51	0.009	0.026	0.005	800	0	0	0	0	1	-360	360;
	51	53	0.002	0.013	0.015	800	0	0	0	0	1	-360	360;
	52	54	0.009	0.065	0.485	800	0	0	0	0	1	-360	360;
	54	56	0.016	0.105	0.203	800	0	0	0	0	1	-360	360;
	54	123	0.001	0.007	0.013	800	0	0	0	0	1	-360	360;
	55	236	0.0265	0.172	0.026	800	0	0	0	0	1	-360	360;
	57	190	0.051	0.232	0.028	800	0	0	0	0	1	-360	360;
	57	66	0.051	0.157	0.023	800	0	0	0	0	1	-360	360;
	58	59	0.032	0.1	0.062	800	0	0	0	0	1	-360	360;
	58	237	0.02	0.1234	0.028	800	0	0	0	0	1	-360	360;
	59	60	0.036	0.131	0.068	800	0	0	0	0	1	-360	360;
	59	61	0.034	0.099	0.047	800	0	0	0	0	1	-360	360;
	60	64	0.018	0.087	0.011	800	0	0	0	0	1	-360	360;
	60	238	0.0256	0.193	0	800	0	0	0	0	1	-360	360;
	61	63	0.021	0.057	0.03	800	0	0	0	0	1	-360	360;
	61	66	0.018	0.052	0.018	800	0	0	0	0	1	-360	360;
	62	73	0.004	0.027	0.05	800	0	0	0	0	1	-360	360;
	62	240	0.0286	0.2013	0.379	800	0	0	0	0	1	-360	360;
	63	64	0.016	0.043	0.004	800	0	0	0	0	1	-360	360;
	64	65	0.001	0.006	0.007	800	0	0	0	0	1	-360	360;
	64	67	0.014	0.07	0.038	800	0	0	0	0	1	-360	360;
	64	239	0.0891	0.2676	0.029	800	0	0	0	0	1	-360	360;
	64	241	0.0782	0.2127	0.022	800	0	0	0	0	1	-360	360;
	65	66	0.006	0.022	0.011	800	0	0	0	0	1	-360	360;
	65	69	0	0.036	0	800	0	0	0	0	1	-360	360;
	66	190	0.099	0.375	0.051	800	0	0	0	0	1	-360	360;
	67	190	0.022	0.107	0.058	800	0	0	0	0	1	-360	360;
	68	173	0.0035	0.033	0.53	800	0	0	0	0	1	-360	360;
	68	174	0.0035	0.033	0.53	800	0	0	0	0	1	-360	360;
	70	71	0.008	0.064	0.128	800	0	0	0	0	1	-360	360;
	71	72	0.012	0.093	0.183	800	0	0	0	0	1	-360	360;
	71	234	0.006	0.048	0.092	800	0	0	0	0	1	-360	360;
	74	76	0.047	0.119	0.014	800	0	0	0	0	1	-360	360;
	75	77	0.032	0.174	0.024	800	0	0	0	0	1	-360	360;
	76	78	0.1	0.253	0.031	800	0	0	0	0	1	-360	360;
	76	79	0.022	0.077	0.039	800	0	0	0	0	1	-360	360;
	77	84	0.019	0.144	0.017	800	0	0	0	0	1	-360	360;
	77	86	0.017	0.092	0.012	800	0	0	0	0	1	-360	360;
	78	79	0.278	0.427	0.043	800	0	0	0	0	1	-360	360;
	79	82	0.022	0.053	0.007	800	0	0	0	0	1	-360	360;
	79	83	0.038	0.092	0.012	800	0	0	0	0	1	-360	360;
	79	84	0.048	0.122	0.015	800	0	0	0	0	1	-360	360;
	80	82	0.024	0.064	0.007	800	0	0	0	0	1	-360	360;
	80	83	0.034	0.121	0.015	800	0	0	0	0	1	-360	360;
	81	87	0.053	0.135	0.017	800	0	0	0	0	1	-360	360;
	81	88	0.002	0.004	0.002	800	0	0	0	0	1	-360	360;
	81	89	0.045	0.354	0.044	800	0	0	0	0	1	-360	360;
	81	90	0.05	0.174	0.022	800	0	0	0	0	1	-360	360;
	82	83	0.016	0.038	0.004	800	0	0	0	0	1	-360	360;
	83	85	0.043	0.064	0.027	800	0	0	0	0	1	-360	360;
	84	86	0.019	0.062	0.008	800	0	0	0	0	1	-360	360;
	85	88	0.076	0.13	0.044	800	0	0	0	0	1	-360	360;
	85	233	0.044	0.124	0.015	800	0	0	0	0	1	-360	360;
	86	87	0.012	0.088	0.011	800	0	0	0	0	1	-360	360;
	86	90	0.157	0.4	0.047	800	0	0	0	0	1	-360	360;
	88	235	0.074	0.208	0.026	800	0	0	0	0	1	-360	360;
	89	90	0.07	0.184	0.021	800	0	0	0	0	1	-360	360;
	89	92	0.1	0.274	0.031	800	0	0	0	0	1	-360	360;
	89	93	0.109	0.393	0.036	800	0	0	0	0	1	-360	360;
	90	91	0.142	0.404	0.05	800	0	0	0	0	1	-360	360;
	91	93	0.017	0.042	0.006	800	0	0	0	0	1	-360	360;
	94	101	0.0036	0.0199	0.004	800	0	0	0	0	1	-360	360;
	95	99	0.002	0.1049	0.001	800	0	0	0	0	1	-360	360;
	96	97	0.0001	0.0018	0.017	800	0	0	0	0	1	-360	360;
	97	98	0	0.0271	0	800	0	0	0	0	1	-360	360;
	97	245	0	0.6163	0	800	0	0	0	0	1	-360	360;
	245	99	0	-0.3697	0	800	0	0	0	0	1	-360	360;
	97	100	0.0022	0.2915	0	800	0	0	0	0	1	-360	360;
	98	99	0	0.0339	0	800	0	0	0	0	1	-360	360;
	98	100	0	0.0582	0	800	0	0	0	0	1	-360	360;
	101	102	0.0808	0.2344	0.029	800	0	0	0	0	1	-360	360;
	101	104	0.0965	0.3669	0.054	800	0	0	0	0	1	-360	360;
	102	103	0.036	0.1076	0.117	800	0	0	0	0	1	-360	360;
	102	104	0.0476	0.1414	0.149	800	0	0	0	0	1	-360	360;
	104	105	0.0006	0.0197	0	800	0	0	0	0	1	-360	360;
	105	106	0.0059	0.0405	0.25	800	0	0	0	0	1	-360	360;
	105	108	0.0115	0.1106	0.185	800	0	0	0	0	1	-360	360;
	105	111	0.0198	0.1688	0.321	800	0	0	0	0	1	-360	360;
	105	136	0.005	0.05	0.33	800	0	0	0	0	1	-360	360;
	105	137	0.0077	0.0538	0.335	800	0	0	0	0	1	-360	360;
	105	148	0.0165	0.1157	0.171	800	0	0	0	0	1	-360	360;
	106	107	0.0059	0.0577	0.095	800	0	0	0	0	1	-360	360;
	106	113	0.0049	0.0336	0.208	800	0	0	0	0	1	-360	360;
	106	147	0.0059	0.0577	0.095	800	0	0	0	0	1	-360	360;
	107	109	0.0078	0.0773	0.126	800	0	0	0	0	1	-360	360;
	107	112	0.0026	0.0193	0.03	800	0	0	0	0	1	-360	360;
	108	109	0.0076	0.0752	0.122	800	0	0	0	0	1	-360	360;
	108	112	0.0021	0.0186	0.03	800	0	0	0	0	1	-360	360;
	109	111	0.0016	0.0164	0.026	800	0	0	0	0	1	-360	360;
	109	130	0.0017	0.0165	0.026	800	0	0	0	0	1	-360	360;
	109	146	0.0079	0.0793	0.127	800	0	0	0	0	1	-360	360;
	109	147	0.0078	0.0784	0.125	800	0	0	0	0	1	-360	360;
	112	116	0.0017	0.0117	0.289	800	0	0	0	0	1	-360	360;
	112	147	0.0026	0.0193	0.03	800	0	0	0	0	1	-360	360;
	112	148	0.0021	0.0186	0.03	800	0	0	0	0	1	-360	360;
	112	150	0.0002	0.0101	0	800	0	0	0	0	1	-360	360;
	113	114	0.0043	0.0293	0.18	800	0	0	0	0	1	-360	360;
	113	163	0.0039	0.0381	0.258	800	0	0	0	0	1	-360	360;
	114	115	0.0091	0.0623	0.385	800	0	0	0	0	1	-360	360;
	115	116	0.0125	0.089	0.54	800	0	0	0	0	1	-360	360;
	115	131	0.0056	0.039	0.953	800	0	0	0	0	1	-360	360;
	116	119	0.0015	0.0114	0.284	800	0	0	0	0	1	-360	360;
	116	160	0.0005	0.0034	0.021	800	0	0	0	0	1	-360	360;
	116	165	0.0007	0.0151	0.126	800	0	0	0	0	1	-360	360;
	116	167	0.0005	0.0034	0.021	800	0	0	0	0	1	-360	360;
	118	151	0.0562	0.2248	0.081	800	0	0	0	0	1	-360	360;
	119	120	0.012	0.0836	0.123	800	0	0	0	0	1	-360	360;
	119	121	0.0152	0.1132	0.684	800	0	0	0	0	1	-360	360;
	119	124	0.0468	0.3369	0.519	800	0	0	0	0	1	-360	360;
	119	125	0.043	0.3031	0.463	800	0	0	0	0	1	-360	360;
	119	126	0.0489	0.3492	0.538	800	0	0	0	0	1	-360	360;
	119	161	0.0013	0.0089	0.119	800	0	0	0	0	1	-360	360;
	120	125	0.0291	0.2267	0.342	800	0	0	0	0	1	-360	360;
	121	122	0.006	0.057	0.767	800	0	0	0	0	1	-360	360;
	122	124	0.0075	0.0773	0.119	800	0	0	0	0	1	-360	360;
	122	128	0.0127	0.0909	0.135	800	0	0	0	0	1	-360	360;
	124	125	0.0085	0.0588	0.087	800	0	0	0	0	1	-360	360;
	124	128	0.0218	0.1511	0.223	800	0	0	0	0	1	-360	360;
	125	126	0.0073	0.0504	0.074	800	0	0	0	0	1	-360	360;
	127	157	0.0523	0.1526	0.074	800	0	0	0	0	1	-360	360;
	127	158	0.1371	0.3919	0.076	800	0	0	0	0	1	-360	360;
	131	132	0.0137	0.0957	0.141	800	0	0	0	0	1	-360	360;
	132	140	0.0055	0.0288	0.19	800	0	0	0	0	1	-360	360;
	133	135	0.1746	0.3161	0.04	800	0	0	0	0	1	-360	360;
	133	162	0.0804	0.3054	0.045	800	0	0	0	0	1	-360	360;
	134	140	0.011	0.0568	0.388	800	0	0	0	0	1	-360	360;
	136	138	0.0008	0.0098	0.069	800	0	0	0	0	1	-360	360;
	137	138	0.0029	0.0285	0.19	800	0	0	0	0	1	-360	360;
	137	139	0.0066	0.0448	0.277	800	0	0	0	0	1	-360	360;
	141	143	0.0024	0.0326	0.236	800	0	0	0	0	1	-360	360;
	141	144	0.0018	0.0245	1.662	800	0	0	0	0	1	-360	360;
	142	143	0.0044	0.0514	3.597	800	0	0	0	0	1	-360	360;
	144	145	0.0002	0.0123	0	800	0	0	0	0	1	-360	360;
	146	148	0.0018	0.0178	0.029	800	0	0	0	0	1	-360	360;
	151	152	0.0669	0.4843	0.063	800	0	0	0	0	1	-360	360;
	151	153	0.0558	0.221	0.031	800	0	0	0	0	1	-360	360;
	152	153	0.0807	0.3331	0.049	800	0	0	0	0	1	-360	360;
	152	154	0.0739	0.3071	0.043	800	0	0	0	0	1	-360	360;
	152	155	0.1799	0.5017	0.069	800	0	0	0	0	1	-360	360;
	154	155	0.0904	0.3626	0.048	800	0	0	0	0	1	-360	360;
	154	158	0.077	0.3092	0.054	800	0	0	0	0	1	-360	360;
	155	156	0.0251	0.0829	0.047	800	0	0	0	0	1	-360	360;
	156	157	0.0222	0.0847	0.05	800	0	0	0	0	1	-360	360;
	157	158	0.0498	0.1855	0.029	800	0	0	0	0	1	-360	360;
	157	159	0.0061	0.029	0.084	800	0	0	0	0	1	-360	360;
	160	117	0.0004	0.0202	0	800	0	0	0	0	1	-360	360;
	160	166	0.0004	0.0083	0.115	800	0	0	0	0	1	-360	360;
	163	164	0.0025	0.0245	0.164	800	0	0	0	0	1	-360	360;
	165	167	0.0007	0.0086	0.115	800	0	0	0	0	1	-360	360;
	166	167	0.0007	0.0086	0.115	800	0	0	0	0	1	-360	360;
	167	117	0.0004	0.0202	0	800	0	0	0	0	1	-360	360;
	168	187	0.033	0.095	0	800	0	0	0	0	1	-360	360;
	168	188	0.046	0.069	0	800	0	0	0	0	1	-360	360;
	169	210	0.0004	0.0022	6.2	800	0	0	0	0	1	-360	360;
	169	219	0	0.0275	0	800	0	0	0	0	1	-360	360;
	170	171	0.003	0.048	0	800	0	0	0	0	1	-360	360;
	171	204	0.002	0.009	0	800	0	0	0	0	1	-360	360;
	172	184	0.045	0.063	0	800	0	0	0	0	1	-360	360;
	172	187	0.048	0.127	0	800	0	0	0	0	1	-360	360;
	173	198	0.0031	0.0286	0.5	800	0	0	0	0	1	-360	360;
	173	242	0.0024	0.0355	0.36	800	0	0	0	0	1	-360	360;
	174	198	0.0031	0.0286	0.5	800	0	0	0	0	1	-360	360;
	175	176	0.014	0.04	0.004	800	0	0	0	0	1	-360	360;
	175	189	0.03	0.081	0.01	800	0	0	0	0	1	-360	360;
	176	177	0.01	0.06	0.009	800	0	0	0	0	1	-360	360;
	176	190	0.015	0.04	0.006	800	0	0	0	0	1	-360	360;
	177	181	0.332	0.688	0	800	0	0	0	0	1	-360	360;
	177	182	0.009	0.046	0.025	800	0	0	0	0	1	-360	360;
	177	189	0.02	0.073	0.008	800	0	0	0	0	1	-360	360;
	177	190	0.034	0.109	0.032	800	0	0	0	0	1	-360	360;
	178	179	0.076	0.135	0.009	800	0	0	0	0	1	-360	360;
	178	189	0.04	0.102	0.005	800	0	0	0	0	1	-360	360;
	179	189	0.081	0.128	0.014	800	0	0	0	0	1	-360	360;
	180	183	0.124	0.183	0	800	0	0	0	0	1	-360	360;
	182	190	0.01	0.059	0.008	800	0	0	0	0	1	-360	360;
	183	184	0.046	0.068	0	800	0	0	0	0	1	-360	360;
	184	185	0.302	0.446	0	800	0	0	0	0	1	-360	360;
	185	186	0.073	0.093	0	800	0	0	0	0	1	-360	360;
	185	187	0.24	0.421	0	800	0	0	0	0	1	-360	360;
	191	194	0.0139	0.0778	0.086	800	0	0	0	0	1	-360	360;
	192	193	0.0025	0.038	0	800	0	0	1	0	1	-360	360;
	193	194	0.0017	0.0185	0.02	800	0	0	0	0	1	-360	360;
	193	221	0.0015	0.0108	0.002	800	0	0	0	0	1	-360	360;
	194	195	0.0045	0.0249	0.026	800	0	0	0	0	1	-360	360;
	195	196	0.004	0.0497	0.018	800	0	0	0	0	1	-360	360;
	196	197	0	0.0456	0	800	0	0	0	0	1	-360	360;
	196	198	0.0005	0.0177	0.02	800	0	0	0	0	1	-360	360;
	196	199	0.0027	0.0395	0.832	800	0	0	0	0	1	-360	360;
	198	216	0.0003	0.0018	5.2	800	0	0	0	0	1	-360	360;
	199	197	0.0037	0.0484	0.43	800	0	0	0	0	1	-360	360;
	199	200	0.001	0.0295	0.503	800	0	0	0	0	1	-360	360;
	199	217	0.0016	0.0046	0.402	800	0	0	0	0	1	-360	360;
	200	202	0.0003	0.0013	1	800	0	0	0	0	1	-360	360;
	201	216	0.0014	0.0514	0.33	800	0	0	1	0	1	-360	360;
	203	204	0.01	0.064	0.48	800	0	0	0	0	1	-360	360;
	203	205	0.0019	0.0081	0.86	800	0	0	0	0	1	-360	360;
	204	170	0.001	0.061	0	800	0	0	0	0	1	-360	360;
	205	210	0.0005	0.0212	0	800	0	0	0	0	1	-360	360;
	206	210	0.0009	0.0472	0.186	800	0	0	1	0	1	-360	360;
	207	208	0.0019	0.0087	1.28	800	0	0	0	0	1	-360	360;
	207	210	0.0026	0.0917	0	800	0	0	0	0	1	-360	360;
	207	213	0.0013	0.0288	0.81	800	0	0	0	0	1	-360	360;
	208	169	0	0.0626	0	800	0	0	0	0	1	-360	360;
	210	211	0.0002	0.0069	1.364	800	0	0	0	0	1	-360	360;
	210	216	0.0001	0.0006	3.57	800	0	0	0	0	1	-360	360;
	211	212	0.0017	0.0485	0	800	0	0	0	0	1	-360	360;
	213	214	0.0002	0.0259	0.144	800	0	0	0	0	1	-360	360;
	213	216	0.0006	0.0272	0	800	0	0	0	0	1	-360	360;
	214	217	0.0002	0.0006	0.8	800	0	0	0	0	1	-360	360;
	220	216	0.0005	0.0154	0	800	0	0	1	0	1	-360	360;
	219	230	0.0003	0.0043	0.009	800	0	0	0	0	1	-360	360;
	221	224	0.0082	0.0851	0	800	0	0	0	0	1	-360	360;
	221	226	0.0112	0.0723	0	800	0	0	0	0	1	-360	360;
	222	223	0.0127	0.0355	0	800	0	0	0	0	1	-360	360;
	222	224	0.0326	0.1804	0	800	0	0	0	0	1	-360	360;
	223	225	0.0195	0.0551	0	800	0	0	0	0	1	-360	360;
	224	225	0.0157	0.0732	0	800	0	0	0	0	1	-360	360;
	224	226	0.036	0.2119	0	800	0	0	0	0	1	-360	360;
	225	226	0.0268	0.1285	0	800	0	0	0	0	1	-360	360;
	226	227	0.0428	0.1215	0	800	0	0	0	0	1	-360	360;
	227	228	0.0351	0.1004	0	800	0	0	0	0	1	-360	360;
	228	229	0.0616	0.1857	0	800	0	0	0	0	1	-360	360;
	3	1	0	0.052	0	800	0	0	0.947	0	1	-360	360;
	3	2	0	0.052	0	800	0	0	0.956	0	1	-360	360;
	3	4	0	0.005	0	800	0	0	0.971	0	1	-360	360;
	7	5	0	0.039	0	800	0	0	0.948	0	1	-360	360;
	7	6	0	0.039	0	800	0	0	0.959	0	1	-360	360;
	10	11	0	0.089	0	800	0	0	1.046	0	1	-360	360;
	12	10	0	0.053	0	800	0	0	0.985	0	1	-360	360;
	15	17	0.0194	0.0311	0	800	0	0	0.9561	0	1	-360	360;
	16	15	0.001	0.038	0	800	0	0	0.971	0	1	-360	360;
	20	19	0	0.014	0	800	0	0	0.952	0	1	-360	360;
	23	22	0	0.064	0	800	0	0	0.943	0	1	-360	360;
	30	29	0	0.047	0	800	0	0	1.01	0	1	-360	360;
	39	38	0	0.02	0	800	0	0	1.008	0	1	-360	360;
	39	40	0	0.021	0	800	0	0	1	0	1	-360	360;
	54	53	0	0.059	0	800	0	0	0.975	0	1	-360	360;
	55	56	0	0.038	0	800	0	0	1.017	0	1	-360	360;
	61	62	0	0.0244	0	800	0	0	1	0	1	-360	360;
	68	73	0	0.02	0	800	0	0	1	0	1	-360	360;
	70	81	0	0.048	0	800	0	0	1	0	1	-360	360;
	71	83	0	0.048	0	800	0	0	1	0	1	-360	360;
	72	78	0	0.046	0	800	0	0	1.015	0	1	-360	360;
	93	186	0	0.149	0	800	0	0	0.967	0	1	-360	360;
	95	103	0.0052	0.0174	0	800	0	0	1.01	0	1	-360	360;
	100	94	0	0.028	0	800	0	0	1.05	0	1	-360	360;
	101	136	0.0005	0.0195	0	800	0	0	1	0	1	-360	360;
	109	110	0	0.018	0	800	0	0	1.0522	0	1	-360	360;
	109	129	0	0.014	0	800	0	0	1.0522	0	1	-360	360;
	111	149	0.001	0.0402	0	800	0	0	1.05	0	1	-360	360;
	120	153	0.0024	0.0603	0	800	0	0	0.975	0	1	-360	360;
	121	154	0.0024	0.0498	-0.087	800	0	0	1	0	1	-360	360;
	122	123	0	0.0833	0	800	0	0	1.035	0	1	-360	360;
	122	127	0.0013	0.0371	0	800	0	0	0.9565	0	1	-360	360;
	124	159	0.0005	0.0182	0	800	0	0	1	0	1	-360	360;
	130	149	0.001	0.0392	0	800	0	0	1.05	0	1	-360	360;
	132	162	0.0027	0.0639	0	800	0	0	1.073	0	1	-360	360;
	134	135	0.0008	0.0256	0	800	0	0	1.05	0	1	-360	360;
	138	96	0	0.016	0	800	0	0	1.0506	0	1	-360	360;
	139	103	0.0012	0.0396	0	800	0	0	0.975	0	1	-360	360;
	142	116	0.0013	0.0384	-0.057	800	0	0	0.98	0	1	-360	360;
	143	134	0.0009	0.0231	-0.033	800	0	0	0.956	0	1	-360	360;
	161	118	0.0003	0.0131	0	800	0	0	1.05	0	1	-360	360;
	168	189	0	0.252	0	800	0	0	1.03	0	1	-360	360;
	172	175	0	0.237	0	800	0	0	1.03	0	1	-360	360;
	174	191	0.0008	0.0366	0	800	0	0	0.985	0	1	-360	360;
	179	227	0	0.22	0	800	0	0	1	0	1	-360	360;
	180	57	0	0.098	0	800	0	0	1.03	0	1	-360	360;
	181	190	0	0.128	0	800	0	0	1.01	0	1	-360	360;
	183	246	0.02	0.204	-0.012	800	0	0	1.05	0	1	-360	360;
	188	177	0.026	0.211	0	800	0	0	1.03	0	1	-360	360;
	190	191	0.003	0.0122	0	800	0	0	1	0	1	-360	360;
	197	198	0.001	0.0354	-0.01	800	0	0	0.97	0	1	-360	360;
	202	203	0.0012	0.0195	-0.364	800	0	0	1	0	1	-360	360;
	208	209	0.001	0.0332	0	800	0	0	1.02	0	1	-360	360;
	213	215	0.0005	0.016	0	800	0	0	1.07	0	1	-360	360;
	217	218	0.0005	0.016	0	800	0	0	1.02	0	1	-360	360;
	175	246	0.0001	0.02	0	800	0	0	1	0	1	-360	360;
	98	243	0.001	0.023	0	800	0	0	1.0223	0	1	-360	360;
	99	244	0	0.023	0	800	0	0	0.9284	0	1	-360	360;
	248	2	0.001	0.0146	0	800	0	0	1	0	1	-360	360;
	249	3	0	0.01054	0	800	0	0	1	0	1	-360	360;
	260	53	0	0.0238	0	800	0	0	1	0	1	-360	360;
	261	54	0	0.03214	0	800	0	0	0.95	0	1	-360	360;
	265	145	0	0.0154	0	800	0	0	1	0	1	-360	360;
	254	23	0	0.0289	0	800	0	0	1	0	1	-360	360;
	247	1	0	0.01953	0	800	0	0	1	0	1	-360	360;
	263	109	0	0.0193	0	800	0	0	1	0	1	-360	360;
	250	11	0	0.01923	0	800	0	0	1	0	1	-360	360;
	253	22	0	0.023	0	800	0	0	1	0	1	-360	360;
	257	43	0	0.0124	0	800	0	0	1	0	1	-360	360;
	264	118	0	0.0167	0	800	0	0	1	0	1	-360	360;
	251	12	0	0.0312	0	800	0	0	1	0	1	-360	360;
	252	17	0	0.01654	0	800	0	0	0.942	0	1	-360	360;
	255	33	0	0.03159	0	800	0	0	0.965	0	1	-360	360;
	259	49	0	0.05347	0	800	0	0	0.95	0	1	-360	360;
	256	38	0	0.18181	0	800	0	0	0.942	0	1	-360	360;
	258	48	0	0.19607	0	800	0	0	0.942	0	1	-360	360;
	262	59	0	0.06896	0	800	0	0	0.9565	0	1	-360	360;
];

%%-----  OPF Data  -----%%
%% generator cost data
%	1	startup	shutdown	n	x1	y1	...	xn	yn
%	2	startup	shutdown	n	c(n-1)	...	c0
mpc.gencost = [
	2	0	0	3	0.01	40	0;
	2	0	0	3	0.01	40	0;
	2	0	0	3	0.01	40	0;
	2	0	0	3	0.01	40	0;
	2	0	0	3	0.01	40	0;
	2	0	0	3	0.0266666667	20	0;
	2	0	0	3	0.064516129	20	0;
	2	0	0	3	0.0344827586	20	0;
	2	0	0	3	0.147058824	20	0;
	2	0	0	3	0.0854700855	20	0;
	2	0	0	3	0.00518134715	20	0;
	2	0	0	3	0.0416666667	20	0;
	2	0	0	3	0.01	40	0;
	2	0	0	3	0.01	40	0;
	2	0	0	3	0.0355871886	20	0;
	2	0	0	3	0.0143678161	20	0;
	2	0	0	3	0.119047619	20	0;
	2	0	0	3	0.0460829493	20	0;
	2	0	0	3	0.0970873786	20	0;
	2	0	0	3	0.0268817204	20	0;
	2	0	0	3	0.0462962963	20	0;
	2	0	0	3	0.01	40	0;
	2	0	0	3	0.0487804878	20	0;
	2	0	0	3	0.01	40	0;
	2	0	0	3	0.0438596491	20	0;
	2	0	0	3	0.119047619	20	0;
	2	0	0	3	0.05	20	0;
	2	0	0	3	0.00833333333	20	0;
	2	0	0	3	0.00833333333	20	0;
	2	0	0	3	0.0210526316	20	0;
	2	0	0	3	0.00506842372	20	0;
	2	0	0	3	0.0235849057	20	0;
	2	0	0	3	0.0367647059	20	0;
	2	0	0	3	0.1	20	0;
	2	0	0	3	0.0222222222	20	0;
	2	0	0	3	0.04	20	0;
	2	0	0	3	0.0330033003	20	0;
	2	0	0	3	0.0289855072	20	0;
	2	0	0	3	0.0333333333	20	0;
	2	0	0	3	0.0166666667	20	0;
	2	0	0	3	0.04	20	0;
	2	0	0	3	0.0181818182	20	0;
	2	0	0	3	0.0173783084	20	0;
	2	0	0	3	0.0588235294	20	0;
	2	0	0	3	0.119047619	20	0;
	2	0	0	3	0.0214132762	20	0;
	2	0	0	3	0.0160513644	20	0;
	2	0	0	3	0.00826446281	20	0;
	2	0	0	3	0.0427350427	20	0;
	2	0	0	3	0.0268817204	20	0;
	2	0	0	3	0.0303030303	20	0;
	2	0	0	3	0.0540540541	20	0;
	2	0	0	3	0.0243902439	20	0;
	2	0	0	3	0.02	20	0;
	2	0	0	3	0.27027027	20	0;
	2	0	0	3	0.01	40	0;
	2	0	0	3	0.222222222	20	0;
	2	0	0	3	0.0606060606	20	0;
	2	0	0	3	0.025	20	0;
	2	0	0	3	0.025	20	0;
	2	0	0	3	0.0862068966	20	0;
	2	0	0	3	0.00773993808	20	0;
	2	0	0	3	0.0142857143	20	0;
	2	0	0	3	0.0180831826	20	0;
	2	0	0	3	0.01	40	0;
	2	0	0	3	0.01	40	0;
	2	0	0	3	0.01	40	0;
	2	0	0	3	0.2	20	0;
	2	0	0	3	1.25	20	0;
];
